Version 4
SHEET 1 1072 680
WIRE 432 -96 336 -96
WIRE 576 -96 496 -96
WIRE 336 0 336 -96
WIRE 416 0 336 0
WIRE 576 0 576 -96
WIRE 576 0 496 0
WIRE 512 128 480 128
WIRE 512 144 512 128
WIRE 400 224 400 128
WIRE 336 240 336 0
WIRE 336 240 304 240
WIRE 368 240 336 240
WIRE 64 256 0 256
WIRE 96 256 64 256
WIRE 208 256 176 256
WIRE 304 256 304 240
WIRE 304 256 272 256
WIRE 576 256 576 0
WIRE 576 256 432 256
WIRE 608 256 576 256
WIRE 640 256 608 256
WIRE 768 256 720 256
WIRE 368 272 336 272
WIRE 768 304 768 256
WIRE 336 352 336 272
WIRE 400 400 400 288
WIRE 512 400 480 400
WIRE 512 416 512 400
FLAG 512 416 0
FLAG 512 144 0
FLAG 768 304 0
FLAG 336 352 0
FLAG 0 336 0
FLAG 608 256 V_out
FLAG 64 256 V_in
SYMBOL OpAmps/opamp2 400 192 R0
SYMATTR InstName U1
SYMATTR Value LM224_ON
SYMBOL voltage 384 128 R270
WINDOW 0 32 56 VTop 2
WINDOW 3 -32 56 VBottom 2
SYMATTR InstName V+
SYMATTR Value 5
SYMBOL voltage 496 400 R90
WINDOW 0 -32 56 VBottom 2
WINDOW 3 32 56 VTop 2
SYMATTR InstName V-
SYMATTR Value 5
SYMBOL voltage 0 240 R0
SYMATTR InstName V1
SYMATTR Value AC 1
SYMBOL res 512 -16 R90
WINDOW 0 0 56 VBottom 2
WINDOW 3 32 56 VTop 2
SYMATTR InstName R1
SYMATTR Value 42k
SYMBOL res 192 240 R90
WINDOW 0 0 56 VBottom 2
WINDOW 3 32 56 VTop 2
SYMATTR InstName R2
SYMATTR Value 100
SYMBOL cap 496 -112 R90
WINDOW 0 0 32 VBottom 2
WINDOW 3 32 32 VTop 2
SYMATTR InstName C2
SYMATTR Value 150n
SYMBOL res 736 240 R90
WINDOW 0 0 56 VBottom 2
WINDOW 3 32 56 VTop 2
SYMATTR InstName R3
SYMATTR Value 1k
SYMBOL cap 272 240 R90
WINDOW 0 0 32 VBottom 2
WINDOW 3 32 32 VTop 2
SYMATTR InstName C1
SYMATTR Value 16m
TEXT 712 -64 Left 2 !.inc "LM224 PSPICE MODEL.MOD"
TEXT 768 56 Left 2 !.ac oct 100 0.01 100
