Version 4
SHEET 1 880 680
WIRE 208 64 144 64
WIRE 336 64 288 64
WIRE 576 64 336 64
WIRE 336 144 336 64
WIRE 576 176 576 64
WIRE -64 192 -96 192
WIRE 96 192 0 192
WIRE 192 192 96 192
WIRE -96 224 -96 192
WIRE -96 272 -96 224
WIRE 336 272 336 240
WIRE 448 272 336 272
WIRE 576 272 576 240
WIRE 576 272 448 272
WIRE 192 352 160 352
WIRE 336 352 272 352
WIRE 576 352 336 352
WIRE 336 368 336 352
WIRE 336 464 336 432
WIRE 576 480 576 352
WIRE 96 512 96 192
WIRE 192 512 96 512
WIRE 336 592 336 560
WIRE 448 592 336 592
WIRE 576 592 576 560
WIRE 576 592 448 592
FLAG 448 272 0
FLAG 448 592 0
FLAG -96 352 0
FLAG -96 224 v_i
FLAG 144 144 0
FLAG 160 432 0
SYMBOL voltage -96 256 R0
SYMATTR InstName V1
SYMATTR Value PWL(0 0 1 5)
SYMBOL res 288 176 R90
WINDOW 0 0 56 VBottom 2
WINDOW 3 32 56 VTop 2
SYMATTR InstName R1b
SYMATTR Value 200k
SYMBOL res 288 336 R90
WINDOW 0 0 56 VBottom 2
WINDOW 3 32 56 VTop 2
SYMATTR InstName R2L
SYMATTR Value 800
SYMBOL res 288 496 R90
WINDOW 0 0 56 VBottom 2
WINDOW 3 32 56 VTop 2
SYMATTR InstName R2b
SYMATTR Value 300k
SYMBOL res 560 464 R0
SYMATTR InstName R2G
SYMATTR Value 10k
SYMBOL npn 272 144 R0
SYMATTR InstName Q1
SYMATTR Value BC547B
SYMBOL npn 272 464 R0
SYMATTR InstName Q2
SYMATTR Value BC547B
SYMBOL LED 560 176 R0
SYMATTR InstName D1
SYMATTR Value NSCW100
SYMBOL LED 320 368 R0
SYMATTR InstName D2
SYMATTR Value NSCW100
SYMBOL res 304 48 R90
WINDOW 0 0 56 VBottom 2
WINDOW 3 32 56 VTop 2
SYMATTR InstName R1L
SYMATTR Value 1k
SYMBOL voltage 144 48 R0
SYMATTR InstName V2
SYMATTR Value 5
SYMBOL diode -64 208 R270
WINDOW 0 32 32 VTop 2
WINDOW 3 0 32 VBottom 2
SYMATTR InstName D3
SYMBOL voltage 160 336 R0
SYMATTR InstName V3
SYMATTR Value 5
TEXT -216 328 Left 2 !.tran 1
TEXT -208 400 Left 2 !.model D (D Vfwd=0.7)
